! DLPNO-CCSD cc-pVDZ cc-pVDZ/C ExtremeSCF PAL8
%scf
    ConvForced true
end
%mdci  TCutPNO    1.000e-07 # default 3.33e-7
       TCutPairs  1.000e-05    # default 1e-4
       TCutMKN    1.000e-04    # default 1e-3
       density unrelaxed
end
! Bohrs
*xyz 0 1
7	-2.9833446500	-0.0880820200	0.0000000000
1	-4.0792025000	0.2577510800	-1.5298561300
1	-4.0792025000	0.2577510800	1.5298561300
1	-1.6052675400	1.2438045100	0.0000000000
*
